src/test/resources/ieeefiles/90node-cdf.txt
 07/12/10                        1.0  0    0      90 Node Test System
BUS DATA FOLLOWS                            90 ITEMS
   1 Node01        1  1  0 1.000   0.00    0.012    0.006      0.0     0.0     0.0  0.0       0.0     0.0   0.0    0.0        0
   2 Node02        1  1  0 1.000   0.00    0.067    0.023      0.0     0.0     0.0  0.0       0.0     0.0   0.0    0.0        0
   3 Node03        1  1  0 1.000   0.00    0.087    0.045      0.0     0.0     0.0  0.0       0.0     0.0   0.0    0.0        0
   4 Node04        1  1  0 1.000   0.00    0.123    0.071      0.0     0.0     0.0  0.0       0.0     0.0   0.0    0.0        0
   5 Node05        1  1  0 1.000   0.00    0.082    0.032      0.0     0.0     0.0  0.0       0.0     0.0   0.0    0.0        0
   6 Node06        1  1  0 1.000   0.00    0.062    0.034      0.0     0.0     0.0  0.0       0.0     0.0   0.0    0.0        0
   7 Node07        1  1  0 1.000   0.00    0.340    0.120      0.0     0.0     0.0  0.0       0.0     0.0   0.0    0.0        0
   8 Node08        1  1  0 1.000   0.00    0.023    0.017      0.0     0.0     0.0  0.0       0.0     0.0   0.0    0.0        0
   9 Node09        1  1  0 1.000   0.00    0.024    0.018      0.0     0.0     0.0  0.0       0.0     0.0   0.0    0.0        0
  10 Node10        1  1  0 1.000   0.00    0.025    0.019      0.0     0.0     0.0  0.0       0.0     0.0   0.0    0.0        0
  11 Node11        1  1  0 1.000   0.00    0.034    0.014      0.0     0.0     0.0  0.0       0.0     0.0   0.0    0.0        0
  12 Node12        1  1  0 1.000   0.00    0.029    0.019      0.0     0.0     0.0  0.0       0.0     0.0   0.0    0.0        0
  13 Node13        1  1  0 1.000   0.00    0.016    0.012      0.0     0.0     0.0  0.0       0.0     0.0   0.0    0.0        0
  14 Node14        1  1  0 1.000   0.00    0.017    0.011      0.0     0.0     0.0  0.0       0.0     0.0   0.0    0.0        0
  15 Node15        1  1  0 1.000   0.00    0.181    0.067      0.0     0.0     0.0  0.0       0.0     0.0   0.0    0.0        0
  16 Node16        1  1  0 1.000   0.00    0.245    0.123      0.0     0.0     0.0  0.0       0.0     0.0   0.0    0.0        0
  17 Node17        1  1  0 1.000   0.00    0.014    0.011      0.0     0.0     0.0  0.0       0.0     0.0   0.0    0.0        0
  18 Node18        1  1  0 1.000   0.00    0.013    0.011      0.0     0.0     0.0  0.0       0.0     0.0   0.0    0.0        0
  19 Node19        1  1  0 1.000   0.00    0.028    0.017      0.0     0.0     0.0  0.0       0.0     0.0   0.0    0.0        0
  20 Node20        1  1  0 1.000   0.00    0.123    0.051      0.0     0.0     0.0  0.0       0.0     0.0   0.0    0.0        0
  21 Node21        1  1  0 1.000   0.00    0.091    0.045      0.0     0.0     0.0  0.0       0.0     0.0   0.0    0.0        0
  22 Node22        1  1  0 1.000   0.00    0.123    0.067      0.0     0.0     0.0  0.0       0.0     0.0   0.0    0.0        0
  23 Node23        1  1  0 1.000   0.00    0.089    0.034      0.0     0.0     0.0  0.0       0.0     0.0   0.0    0.0        0
  24 Node24        1  1  0 1.000   0.00    0.045    0.019      0.0     0.0     0.0  0.0       0.0     0.0   0.0    0.0        0
  25 Node25        1  1  0 1.000   0.00    0.013    0.009      0.0     0.0     0.0  0.0       0.0     0.0   0.0    0.0        0
  26 Node26        1  1  0 1.000   0.00    0.035    0.012      0.0     0.0     0.0  0.0       0.0     0.0   0.0    0.0        0
  27 Node27        1  1  0 1.000   0.00    0.032    0.014      0.0     0.0     0.0  0.0       0.0     0.0   0.0    0.0        0
  28 Node28        1  1  0 1.000   0.00    0.024    0.013      0.0     0.0     0.0  0.0       0.0     0.0   0.0    0.0        0
  29 Node29        1  1  0 1.000   0.00    0.124    0.057      0.0     0.0     0.0  0.0       0.0     0.0   0.0    0.0        0
  30 Node30        1  1  0 1.000   0.00    0.098    0.067      0.0     0.0     0.0  0.0       0.0     0.0   0.0    0.0        0
  31 Node31        1  1  0 1.000   0.00    0.088    0.054      0.0     0.0     0.0  0.0       0.0     0.0   0.0    0.0        0
  32 Node32        1  1  0 1.000   0.00    0.077    0.052      0.0     0.0     0.0  0.0       0.0     0.0   0.0    0.0        0
  33 Node33        1  1  0 1.000   0.00    0.066    0.023      0.0     0.0     0.0  0.0       0.0     0.0   0.0    0.0        0
  34 Node34        1  1  0 1.000   0.00    0.076    0.034      0.0     0.0     0.0  0.0       0.0     0.0   0.0    0.0        0
  35 Node35        1  1  0 1.000   0.00    0.231    0.123      0.0     0.0     0.0  0.0       0.0     0.0   0.0    0.0        0
  36 Node36        1  1  0 1.000   0.00    0.078    0.035      0.0     0.0     0.0  0.0       0.0     0.0   0.0    0.0        0
  37 Node37        1  1  0 1.000   0.00    0.234    0.115      0.0     0.0     0.0  0.0       0.0     0.0   0.0    0.0        0
  38 Node38        1  1  0 1.000   0.00    0.243    0.124      0.0     0.0     0.0  0.0       0.0     0.0   0.0    0.0        0
  39 Node39        1  1  0 1.000   0.00    0.067    0.024      0.0     0.0     0.0  0.0       0.0     0.0   0.0    0.0        0
  40 Node40        1  1  0 1.000   0.00    0.088    0.033      0.0     0.0     0.0  0.0       0.0     0.0   0.0    0.0        0
  41 Node41        1  1  0 1.000   0.00    0.123    0.076      0.0     0.0     0.0  0.0       0.0     0.0   0.0    0.0        0
  42 Node42        1  1  0 1.000   0.00    0.045    0.021      0.0     0.0     0.0  0.0       0.0     0.0   0.0    0.0        0
  43 Node43        1  1  0 1.000   0.00    0.012    0.009      0.0     0.0     0.0  0.0       0.0     0.0   0.0    0.0        0
  44 Node44        1  1  0 1.000   0.00    0.123    0.054      0.0     0.0     0.0  0.0       0.0     0.0   0.0    0.0        0
  45 Node45        1  1  0 1.000   0.00    0.165    0.091      0.0     0.0     0.0  0.0       0.0     0.0   0.0    0.0        0
  46 Node46        1  1  0 1.000   0.00    0.000    0.000      0.0     0.0     0.0  0.0       0.0     0.0   0.0    0.0        0
  47 Node47        1  1  0 1.000   0.00    0.000    0.000      0.0     0.0     0.0  0.0       0.0     0.0   0.0    0.0        0
  48 Node48        1  1  0 1.000   0.00    0.000    0.000      0.0     0.0     0.0  0.0       0.0     0.0   0.0    0.0        0
  49 Node49        1  1  0 1.000   0.00    0.000    0.000      0.0     0.0     0.0  0.0       0.0     0.0   0.0    0.0        0
  50 Node50        1  1  0 1.000   0.00    0.000    0.000      0.0     0.0     0.0  0.0       0.0     0.0   0.0    0.0        0
  51 Node51        1  1  0 1.000   0.00    0.000    0.000      0.0     0.0     0.0  0.0       0.0     0.0   0.0    0.0        0
  52 Node52        1  1  0 1.000   0.00    0.000    0.000      0.0     0.0     0.0  0.0       0.0     0.0   0.0    0.0        0
  53 Node53        1  1  0 1.000   0.00    0.000    0.000      0.0     0.0     0.0  0.0       0.0     0.0   0.0    0.0        0
  54 Node54        1  1  0 1.000   0.00    0.000    0.000      0.0     0.0     0.0  0.0       0.0     0.0   0.0    0.0        0
  55 Node55        1  1  0 1.000   0.00    0.000    0.000      0.0     0.0     0.0  0.0       0.0     0.0   0.0    0.0        0
  56 Node56        1  1  0 1.000   0.00    0.000    0.000      0.0     0.0     0.0  0.0       0.0     0.0   0.0    0.0        0
  57 Node57        1  1  0 1.000   0.00    0.000    0.000      0.0     0.0     0.0  0.0       0.0     0.0   0.0    0.0        0
  58 Node58        1  1  0 1.000   0.00    0.000    0.000      0.0     0.0     0.0  0.0       0.0     0.0   0.0    0.0        0
  59 Node59        1  1  0 1.000   0.00    0.000    0.000      0.0     0.0     0.0  0.0       0.0     0.0   0.0    0.0        0
  60 Node60        1  1  0 1.000   0.00    0.000    0.000      0.0     0.0     0.0  0.0       0.0     0.0   0.0    0.0        0
  61 Node61        1  1  0 1.000   0.00    0.000    0.000      0.0     0.0     0.0  0.0       0.0     0.0   0.0    0.0        0
  62 Node62        1  1  0 1.000   0.00    0.000    0.000      0.0     0.0     0.0  0.0       0.0     0.0   0.0    0.0        0
  63 Node63        1  1  0 1.000   0.00    0.000    0.000      0.0     0.0     0.0  0.0       0.0     0.0   0.0    0.0        0
  64 Node64        1  1  0 1.000   0.00    0.000    0.000      0.0     0.0     0.0  0.0       0.0     0.0   0.0    0.0        0
  65 Node65        1  1  0 1.000   0.00    0.000    0.000      0.0     0.0     0.0  0.0       0.0     0.0   0.0    0.0        0
  66 Node66        1  1  0 1.000   0.00    0.000    0.000      0.0     0.0     0.0  0.0       0.0     0.0   0.0    0.0        0
  67 Node67        1  1  0 1.000   0.00    0.000    0.000      0.0     0.0     0.0  0.0       0.0     0.0   0.0    0.0        0
  68 Node68        1  1  0 1.000   0.00    0.000    0.000      0.0     0.0     0.0  0.0       0.0     0.0   0.0    0.0        0
  69 Node69        1  1  0 1.000   0.00    0.000    0.000      0.0     0.0     0.0  0.0       0.0     0.0   0.0    0.0        0
  70 Node70        1  1  0 1.000   0.00    0.000    0.000      0.0     0.0     0.0  0.0       0.0     0.0   0.0    0.0        0
  71 Node71        1  1  0 1.000   0.00    0.000    0.000      0.0     0.0     0.0  0.0       0.0     0.0   0.0    0.0        0
  72 Node72        1  1  0 1.000   0.00    0.000    0.000      0.0     0.0     0.0  0.0       0.0     0.0   0.0    0.0        0
  73 Node73        1  1  0 1.000   0.00    0.000    0.000      0.0     0.0     0.0  0.0       0.0     0.0   0.0    0.0        0
  74 Node74        1  1  0 1.000   0.00    0.000    0.000      0.0     0.0     0.0  0.0       0.0     0.0   0.0    0.0        0
  75 Node75        1  1  0 1.000   0.00    0.000    0.000      0.0     0.0     0.0  0.0       0.0     0.0   0.0    0.0        0
  76 Node76        1  1  0 1.000   0.00    0.000    0.000      0.0     0.0     0.0  0.0       0.0     0.0   0.0    0.0        0
  77 Node77        1  1  0 1.000   0.00    0.000    0.000      0.0     0.0     0.0  0.0       0.0     0.0   0.0    0.0        0
  78 Node78        1  1  0 1.000   0.00    0.000    0.000      0.0     0.0     0.0  0.0       0.0     0.0   0.0    0.0        0
  79 Node79        1  1  0 1.000   0.00    0.000    0.000      0.0     0.0     0.0  0.0       0.0     0.0   0.0    0.0        0
  80 Node80        1  1  0 1.000   0.00    0.000    0.000      0.0     0.0     0.0  0.0       0.0     0.0   0.0    0.0        0
  81 Node81        1  1  0 1.000   0.00    0.000    0.000      0.0     0.0     0.0  0.0       0.0     0.0   0.0    0.0        0
  82 Node82        1  1  0 1.000   0.00    0.000    0.000      0.0     0.0     0.0  0.0       0.0     0.0   0.0    0.0        0
  83 Node83        1  1  0 1.000   0.00    0.000    0.000      0.0     0.0     0.0  0.0       0.0     0.0   0.0    0.0        0
  84 Node84        1  1  0 1.000   0.00    0.000    0.000      0.0     0.0     0.0  0.0       0.0     0.0   0.0    0.0        0
  85 Node85        1  1  0 1.000   0.00    0.000    0.000      0.0     0.0     0.0  0.0       0.0     0.0   0.0    0.0        0
  86 Node86        1  1  0 1.000   0.00    0.000    0.000      0.0     0.0     0.0  0.0       0.0     0.0   0.0    0.0        0
  87 Node87        1  1  0 1.000   0.00    0.000    0.000      0.0     0.0     0.0  0.0       0.0     0.0   0.0    0.0        0
  88 Node88        1  1  0 1.000   0.00    0.000    0.000      0.0     0.0     0.0  0.0       0.0     0.0   0.0    0.0        0
  89 Node89        1  1  3 1.000   0.00    0.000    0.000      0.0     0.0     1.0  1.0       0.0     0.0   0.0    0.0        0
  90 Node90        1  1  0 1.000   0.00    0.000    0.000      0.0     0.0     0.0  0.0       0.0     0.0   0.0    0.0        0
-999
BRANCH DATA FOLLOWS                         89 ITEMS
  89   46  1  1 1 0  0.00020   0.00150    0.00000     0     0     0    0 0  0.0       0.0 0.0    0.0     0.0    0.0    0.0
  47   46  1  1 1 0  0.00040   0.00190    0.00000     0     0     0    0 0  0.0       0.0 0.0    0.0     0.0    0.0    0.0
  48   47  1  1 1 0  0.00030   0.00200    0.00000     0     0     0    0 0  0.0       0.0 0.0    0.0     0.0    0.0    0.0
  48   45  1  1 1 0  0.00010   0.00120    0.00000     0     0     0    0 0  0.0       0.0 0.0    0.0     0.0    0.0    0.0
  49   46  1  1 1 0  0.00050   0.00210    0.00000     0     0     0    0 0  0.0       0.0 0.0    0.0     0.0    0.0    0.0
  49   50  1  1 1 0  0.00100   0.00500    0.00000     0     0     0    0 0  0.0       0.0 0.0    0.0     0.0    0.0    0.0
  50    1  1  1 1 0  0.00010   0.00700    0.00000     0     0     0    0 0  0.0       0.0 0.0    0.0     0.0    0.0    0.0
  50   51  1  1 1 0  0.00150   0.00750    0.00000     0     0     0    0 0  0.0       0.0 0.0    0.0     0.0    0.0    0.0
   2   51  1  1 1 0  0.00160   0.00800    0.00000     0     0     0    0 0  0.0       0.0 0.0    0.0     0.0    0.0    0.0
   3   51  1  1 1 0  0.00170   0.00820    0.00000     0     0     0    0 0  0.0       0.0 0.0    0.0     0.0    0.0    0.0
  49   52  1  1 1 0  0.00030   0.00100    0.00000     0     0     0    0 0  0.0       0.0 0.0    0.0     0.0    0.0    0.0
  53   52  1  1 1 0  0.00015   0.00210    0.00000     0     0     0    0 0  0.0       0.0 0.0    0.0     0.0    0.0    0.0
  53    4  1  1 1 0  0.00012   0.00030    0.00000     0     0     0    0 0  0.0       0.0 0.0    0.0     0.0    0.0    0.0
  53   54  1  1 1 0  0.00120   0.00760    0.00000     0     0     0    0 0  0.0       0.0 0.0    0.0     0.0    0.0    0.0
  54    5  1  1 1 0  0.00200   0.00900    0.00000     0     0     0    0 0  0.0       0.0 0.0    0.0     0.0    0.0    0.0
  54   55  1  1 1 0  0.00120   0.00950    0.00000     0     0     0    0 0  0.0       0.0 0.0    0.0     0.0    0.0    0.0
  55    6  1  1 1 0  0.00250   0.00870    0.00000     0     0     0    0 0  0.0       0.0 0.0    0.0     0.0    0.0    0.0
  55    7  1  1 1 0  0.01280   0.04250    0.00000     0     0     0    0 0  0.0       0.0 0.0    0.0     0.0    0.0    0.0
  52   56  1  1 1 0  0.00900   0.03100    0.00000     0     0     0    0 0  0.0       0.0 0.0    0.0     0.0    0.0    0.0
  56   61  1  1 1 0  0.00850   0.01250    0.00000     0     0     0    0 0  0.0       0.0 0.0    0.0     0.0    0.0    0.0
  66   67  1  1 1 0  0.00015   0.00045    0.00000     0     0     0    0 0  0.0       0.0 0.0    0.0     0.0    0.0    0.0
  67   19  1  1 1 0  0.00020   0.00090    0.00000     0     0     0    0 0  0.0       0.0 0.0    0.0     0.0    0.0    0.0
  67   20  1  1 1 0  0.00030   0.00160    0.00000     0     0     0    0 0  0.0       0.0 0.0    0.0     0.0    0.0    0.0
  62   68  1  1 1 0  0.00001   0.00005    0.00000     0     0     0    0 0  0.0       0.0 0.0    0.0     0.0    0.0    0.0
  68   70  1  1 1 0  0.00004   0.00009    0.00000     0     0     0    0 0  0.0       0.0 0.0    0.0     0.0    0.0    0.0
  69   70  1  1 1 0  0.00010   0.00060    0.00000     0     0     0    0 0  0.0       0.0 0.0    0.0     0.0    0.0    0.0
  69   21  1  1 1 0  0.00010   0.00050    0.00000     0     0     0    0 0  0.0       0.0 0.0    0.0     0.0    0.0    0.0
  69   22  1  1 1 0  0.00020   0.00080    0.00000     0     0     0    0 0  0.0       0.0 0.0    0.0     0.0    0.0    0.0
  70   71  1  1 1 0  0.00020   0.00070    0.00000     0     0     0    0 0  0.0       0.0 0.0    0.0     0.0    0.0    0.0
  71   23  1  1 1 0  0.00010   0.00090    0.00000     0     0     0    0 0  0.0       0.0 0.0    0.0     0.0    0.0    0.0
  71   72  1  1 1 0  0.00120   0.00750    0.00000     0     0     0    0 0  0.0       0.0 0.0    0.0     0.0    0.0    0.0
  72   74  1  1 1 0  0.00250   0.00850    0.00000     0     0     0    0 0  0.0       0.0 0.0    0.0     0.0    0.0    0.0
  72   25  1  1 1 0  0.00150   0.00790    0.00000     0     0     0    0 0  0.0       0.0 0.0    0.0     0.0    0.0    0.0
  68   73  1  1 1 0  0.00010   0.00120    0.00000     0     0     0    0 0  0.0       0.0 0.0    0.0     0.0    0.0    0.0
  73   74  1  1 1 0  0.00020   0.00070    0.00000     0     0     0    0 0  0.0       0.0 0.0    0.0     0.0    0.0    0.0
  74   26  1  1 1 0  0.00030   0.00080    0.00000     0     0     0    0 0  0.0       0.0 0.0    0.0     0.0    0.0    0.0
  74   27  1  1 1 0  0.00050   0.00120    0.00000     0     0     0    0 0  0.0       0.0 0.0    0.0     0.0    0.0    0.0
  73   75  1  1 1 0  0.00040   0.00070    0.00000     0     0     0    0 0  0.0       0.0 0.0    0.0     0.0    0.0    0.0
  75   76  1  1 1 0  0.00020   0.00060    0.00000     0     0     0    0 0  0.0       0.0 0.0    0.0     0.0    0.0    0.0
  76   28  1  1 1 0  0.00010   0.00070    0.00000     0     0     0    0 0  0.0       0.0 0.0    0.0     0.0    0.0    0.0
  76   29  1  1 1 0  0.00020   0.00050    0.00000     0     0     0    0 0  0.0       0.0 0.0    0.0     0.0    0.0    0.0
  75   77  1  1 1 0  0.00020   0.00080    0.00000     0     0     0    0 0  0.0       0.0 0.0    0.0     0.0    0.0    0.0
  77   30  1  1 1 0  0.00010   0.00090    0.00000     0     0     0    0 0  0.0       0.0 0.0    0.0     0.0    0.0    0.0
  77   78  1  1 1 0  0.00040   0.00070    0.00000     0     0     0    0 0  0.0       0.0 0.0    0.0     0.0    0.0    0.0
  78   31  1  1 1 0  0.00050   0.00090    0.00000     0     0     0    0 0  0.0       0.0 0.0    0.0     0.0    0.0    0.0
   8   61  1  1 1 0  0.00120   0.00750    0.00000     0     0     0    0 0  0.0       0.0 0.0    0.0     0.0    0.0    0.0
   9   61  1  1 1 0  0.00150   0.01610    0.00000     0     0     0    0 0  0.0       0.0 0.0    0.0     0.0    0.0    0.0
  56   57  1  1 1 0  0.00020   0.00150    0.00000     0     0     0    0 0  0.0       0.0 0.0    0.0     0.0    0.0    0.0
  10   57  1  1 1 0  0.00030   0.00250    0.00000     0     0     0    0 0  0.0       0.0 0.0    0.0     0.0    0.0    0.0
  58   57  1  1 1 0  0.00010   0.00050    0.00000     0     0     0    0 0  0.0       0.0 0.0    0.0     0.0    0.0    0.0
  11   58  1  1 1 0  0.00020   0.00060    0.00000     0     0     0    0 0  0.0       0.0 0.0    0.0     0.0    0.0    0.0
  58   59  1  1 1 0  0.00150   0.00250    0.00000     0     0     0    0 0  0.0       0.0 0.0    0.0     0.0    0.0    0.0
  12   59  1  1 1 0  0.00030   0.00150    0.00000     0     0     0    0 0  0.0       0.0 0.0    0.0     0.0    0.0    0.0
  59   60  1  1 1 0  0.00090   0.00210    0.00000     0     0     0    0 0  0.0       0.0 0.0    0.0     0.0    0.0    0.0
  13   60  1  1 1 0  0.00010   0.00040    0.00000     0     0     0    0 0  0.0       0.0 0.0    0.0     0.0    0.0    0.0
  14   60  1  1 1 0  0.00060   0.00100    0.00000     0     0     0    0 0  0.0       0.0 0.0    0.0     0.0    0.0    0.0
  47   62  1  1 1 0  0.00010   0.00090    0.00000     0     0     0    0 0  0.0       0.0 0.0    0.0     0.0    0.0    0.0
  62   63  1  1 1 0  0.00015   0.00080    0.00000     0     0     0    0 0  0.0       0.0 0.0    0.0     0.0    0.0    0.0
  63   15  1  1 1 0  0.00100   0.00400    0.00000     0     0     0    0 0  0.0       0.0 0.0    0.0     0.0    0.0    0.0
  63   64  1  1 1 0  0.00040   0.00090    0.00000     0     0     0    0 0  0.0       0.0 0.0    0.0     0.0    0.0    0.0
  64   65  1  1 1 0  0.00020   0.00080    0.00000     0     0     0    0 0  0.0       0.0 0.0    0.0     0.0    0.0    0.0
  65   16  1  1 1 0  0.00150   0.00170    0.00000     0     0     0    0 0  0.0       0.0 0.0    0.0     0.0    0.0    0.0
  65   17  1  1 1 0  0.00100   0.00250    0.00000     0     0     0    0 0  0.0       0.0 0.0    0.0     0.0    0.0    0.0
  64   66  1  1 1 0  0.00010   0.00030    0.00000     0     0     0    0 0  0.0       0.0 0.0    0.0     0.0    0.0    0.0
  18   66  1  1 1 0  0.00010   0.00040    0.00000     0     0     0    0 0  0.0       0.0 0.0    0.0     0.0    0.0    0.0
  78   32  1  1 1 0  0.00030   0.00100    0.00000     0     0     0    0 0  0.0       0.0 0.0    0.0     0.0    0.0    0.0
  79   48  1  1 1 0  0.00002   0.00005    0.00000     0     0     0    0 0  0.0       0.0 0.0    0.0     0.0    0.0    0.0
  79   33  1  1 1 0  0.00020   0.00010    0.00000     0     0     0    0 0  0.0       0.0 0.0    0.0     0.0    0.0    0.0
  79   80  1  1 1 0  0.00040   0.00080    0.00000     0     0     0    0 0  0.0       0.0 0.0    0.0     0.0    0.0    0.0
  80   34  1  1 1 0  0.00020   0.00080    0.00000     0     0     0    0 0  0.0       0.0 0.0    0.0     0.0    0.0    0.0
  80   81  1  1 1 0  0.00010   0.00070    0.00000     0     0     0    0 0  0.0       0.0 0.0    0.0     0.0    0.0    0.0
  81   82  1  1 1 0  0.00050   0.00100    0.00000     0     0     0    0 0  0.0       0.0 0.0    0.0     0.0    0.0    0.0
  82   35  1  1 1 0  0.00040   0.00080    0.00000     0     0     0    0 0  0.0       0.0 0.0    0.0     0.0    0.0    0.0
  82   36  1  1 1 0  0.00020   0.00100    0.00000     0     0     0    0 0  0.0       0.0 0.0    0.0     0.0    0.0    0.0
  81   83  1  1 1 0  0.00070   0.00120    0.00000     0     0     0    0 0  0.0       0.0 0.0    0.0     0.0    0.0    0.0
  83   37  1  1 1 0  0.00100   0.00720    0.00000     0     0     0    0 0  0.0       0.0 0.0    0.0     0.0    0.0    0.0
  83   90  1  1 1 0  0.00120   0.00210    0.00000     0     0     0    0 0  0.0       0.0 0.0    0.0     0.0    0.0    0.0
  90   84  1  1 1 0  0.00150   0.00250    0.00000     0     0     0    0 0  0.0       0.0 0.0    0.0     0.0    0.0    0.0
  84   38  1  1 1 0  0.00100   0.00700    0.00000     0     0     0    0 0  0.0       0.0 0.0    0.0     0.0    0.0    0.0
  84   85  1  1 1 0  0.00020   0.00090    0.00000     0     0     0    0 0  0.0       0.0 0.0    0.0     0.0    0.0    0.0
  85   39  1  1 1 0  0.00120   0.00720    0.00000     0     0     0    0 0  0.0       0.0 0.0    0.0     0.0    0.0    0.0
  85   40  1  1 1 0  0.00150   0.00920    0.00000     0     0     0    0 0  0.0       0.0 0.0    0.0     0.0    0.0    0.0
  90   86  1  1 1 0  0.00200   0.00800    0.00000     0     0     0    0 0  0.0       0.0 0.0    0.0     0.0    0.0    0.0
  86   41  1  1 1 0  0.00070   0.00140    0.00000     0     0     0    0 0  0.0       0.0 0.0    0.0     0.0    0.0    0.0  
  86   87  1  1 1 0  0.00090   0.00210    0.00000     0     0     0    0 0  0.0       0.0 0.0    0.0     0.0    0.0    0.0
  87   42  1  1 1 0  0.00150   0.00280    0.00000     0     0     0    0 0  0.0       0.0 0.0    0.0     0.0    0.0    0.0
  87   88  1  1 1 0  0.00170   0.00270    0.00000     0     0     0    0 0  0.0       0.0 0.0    0.0     0.0    0.0    0.0
  88   43  1  1 1 0  0.00130   0.00230    0.00000     0     0     0    0 0  0.0       0.0 0.0    0.0     0.0    0.0    0.0
  88   44  1  1 1 0  0.00170   0.00250    0.00000     0     0     0    0 0  0.0       0.0 0.0    0.0     0.0    0.0    0.0
-999
LOSS ZONES FOLLOWS                     1 ITEMS
  1 90 Node Test System
-99
INTERCHANGE DATA FOLLOWS               0 ITEMS
-9
TIE LINES FOLLOWS                      0 ITEMS
-999
END OF DATA
